<routes>

    <route id="1" edges="L63 L64 L65 L66 L67 L68 L61 L62 L63 L64 L65 L66 L67 L68 L61 L62 L63 L64 L65 L66 L67 L68 L61 L62 L63 L64 L65 L66 L67 L68 L61 L62 L63 L64 L65 L66 L67 L68 L61 L62 L63 L64 L65 L66"/>
    <route id="2" edges="L67 L68 L61 L62 L63 L64 L65 L66 L67 L68 L61 L62 L63 L64 L65 L66 L67 L68 L61 L62 L63 L64 L65 L66 L67 L68 L61 L62 L63 L64 L65 L66 L67 L68 L61 L62"/>
    <route id="3" edges="L67 L68 L61 L62 L63 L64 L65 L66 L67 L68 L61 L62 L63 L64 L65 L66 L67 L68 L61 L62 L63 L64 L65 L66 L67 L68 L61 L62 L63 L64 L65 L66 L67 L68 L61 L62"/>
    <route id="4" edges="L63 L64 L65 L66 L67 L68 L61 L62 L63 L64 L65 L66 L67 L68 L61 L62 L63 L64 L65 L66 L67 L68 L61 L62 L63 L64 L65 L66 L67 L68 L61 L62 L63 L64 L65 L66 L67 L68 L61 L62 L63 L64 L65 L66"/>
    <route id="5" edges="L67 L68 L61 L62 L63 L64 L65 L66 L67 L68 L61 L62 L63 L64 L65 L66 L67 L68 L61 L62 L63 L64 L65 L66 L67 L68 L61 L62 L63 L64 L65 L66 L67 L68 L61 L62"/>
    <route id="6" edges="L67 L68 L61 L62 L63 L64 L65 L66 L67 L68 L61 L62 L63 L64 L65 L66 L67 L68 L61 L62 L63 L64 L65 L66 L67 L68 L61 L62 L63 L64 L65 L66 L67 L68 L61 L62"/>

    <vehicle id="1_0" route="1" depart="0" />
    <vehicle id="2_1" route="2" depart="1" />
    <vehicle id="3_2" route="3" depart="2" />
    <vehicle id="4_3" route="4" depart="3" />
    <vehicle id="5_4" route="5" depart="4" />
    <vehicle id="6_5" route="6" depart="5" />

</routes>